VADER_model/FULL_MODEL/aluminum_transformers.glm
/////////////////////////////////////////////////////////////////////////////
//
// GridLAB-D service model configuration control file
// Copyright (C) 2016, SLAC National Accelerator Laboratory
// Author: Alyona Ivanova
//
/////////////////////////////////////////////////////////////////////////////
#print Transformers file loaded...

object meter {
	name source_00411;
	bustype PQ;
    parent camden_main_bus;
	    phases ABC;
	    nominal_voltage 6928.41 V;
	voltage_A 7199.77+0.0d V;
	voltage_B 7199.77-120.0d V;
	voltage_C 7199.77+120.0d V;
    object recorder {
            file aluminum_scada.csv;
            //table source_17916;
            //interval 3600;
            property measured_real_energy,measured_reactive_energy;
    };
}


object capacitor{
	name capacitor_P5300947;
	parent node_176256939_00411;
	    phases ABC;
	control VOLT;
	capacitor_A 600.000000 kVAr ;
	capacitor_B 600.000000 kVAr ;
	capacitor_C 600.000000 kVAr ;
	switchA CLOSED;
	switchB CLOSED;
	switchC CLOSED;
	pt_phase ABC;
	voltage_set_high 7.32 kV;
	voltage_set_low 7.08 kV;
	time_delay 60;
	dwell_time 120;
	    nominal_voltage 6928.41 V;
}
object capacitor{
	name capacitor_4086095E;
	parent node_ND26631735_00411;
	    phases ABC;
	control VOLT;
	capacitor_A 0.000000 kVAr ;
	capacitor_B 0.000000 kVAr ;
	capacitor_C 400.000000 kVAr ;
	switchA CLOSED;
	switchB CLOSED;
	switchC CLOSED;
	pt_phase ABC;
	voltage_set_high 7.32 kV;
	voltage_set_low 7.08 kV;
	time_delay 60;
	dwell_time 120;
	    nominal_voltage 6928.41 V;
}
object capacitor{
	name capacitor_P5079151;
	parent node_OS0823-4_00411;
	    phases ABC;
	control VOLT;
	capacitor_A 600.000000 kVAr ;
	capacitor_B 600.000000 kVAr ;
	capacitor_C 600.000000 kVAr ;
	switchA CLOSED;
	switchB CLOSED;
	switchC CLOSED;
	pt_phase ABC;
	voltage_set_high 7.32 kV;
	voltage_set_low 7.08 kV;
	time_delay 60;
	dwell_time 120;
	    nominal_voltage 6928.41 V;
}


object transformer{
    name TX_B5300937_A;
    groupid TX_50_A;
    configuration TX_config_B5300937_A;
    from node_B5300937_F_00411;
    to aluminum_load_1_A;
    phases AS;
    nominal_voltage 6928.41 V;
}
object transformer_configuration {
    name TX_config_B5300937_A;
    connect_type SINGLE_PHASE_CENTER_TAPPED;
    primary_voltage 6928.41 V;
    secondary_voltage 120 V;
    power_rating 50 kVA;
    powerA_rating 50 kVA;
    impedance 0.0005+0.0095j;
}

object transformer{
    name TX_B5072195_A;
    groupid TX_75_A;
    configuration TX_config_B5072195_A;
    from node_B5072195_F_00411;
    to aluminum_load_2_A;
    phases AS;
    nominal_voltage 6928.41 V;
}
object transformer_configuration {
    name TX_config_B5072195_A;
    connect_type SINGLE_PHASE_CENTER_TAPPED;
    primary_voltage 6928.41 V;
    secondary_voltage 120 V;
    power_rating 75 kVA;
    powerA_rating 75 kVA;
    impedance 0.00055+0.01045j;
}

object transformer{
    name TX_P5073685_A;
    groupid TX_50_A;
    configuration TX_config_P5073685_A;
    from node_P5073685-A_T_00411;
    to aluminum_load_3_A;
    phases AS;
    nominal_voltage 6928.41 V;
}
object transformer_configuration {
    name TX_config_P5073685_A;
    connect_type SINGLE_PHASE_CENTER_TAPPED;
    primary_voltage 6928.41 V;
    secondary_voltage 120 V;
    power_rating 50 kVA;
    powerA_rating 50 kVA;
    impedance 0.0005+0.0095j;
}

object transformer{
    name TX_B5079142_A;
    groupid TX_25_A;
    configuration TX_config_B5079142_A;
    from node_B5079142_F_00411;
    to aluminum_load_4_A;
    phases AS;
    nominal_voltage 6928.41 V;
}
object transformer_configuration {
    name TX_config_B5079142_A;
    connect_type SINGLE_PHASE_CENTER_TAPPED;
    primary_voltage 6928.41 V;
    secondary_voltage 120 V;
    power_rating 25 kVA;
    powerA_rating 25 kVA;
    impedance 0.0005+0.0095j;
}

object transformer{
    name TX_B5076589_A;
    groupid TX_75_A;
    configuration TX_config_B5076589_A;
    from node_B5076589_F_00411;
    to aluminum_load_5_A;
    phases AS;
    nominal_voltage 6928.41 V;
}
object transformer_configuration {
    name TX_config_B5076589_A;
    connect_type SINGLE_PHASE_CENTER_TAPPED;
    primary_voltage 6928.41 V;
    secondary_voltage 120 V;
    power_rating 75 kVA;
    powerA_rating 75 kVA;
    impedance 0.00055+0.01045j;
}

object transformer{
    name TX_B5300945_A;
    groupid TX_50_A;
    configuration TX_config_B5300945_A;
    from node_B5300945_F_00411;
    to aluminum_load_6_A;
    phases AS;
    nominal_voltage 6928.41 V;
}
object transformer_configuration {
    name TX_config_B5300945_A;
    connect_type SINGLE_PHASE_CENTER_TAPPED;
    primary_voltage 6928.41 V;
    secondary_voltage 120 V;
    power_rating 50 kVA;
    powerA_rating 50 kVA;
    impedance 0.0005+0.0095j;
}

object transformer{
    name TX_S5071781_A;
    groupid TX_100_A;
    configuration TX_config_S5071781_A;
    from node_S5071781_00411;
    to aluminum_load_7_A;
    phases AS;
    nominal_voltage 6928.41 V;
}
object transformer_configuration {
    name TX_config_S5071781_A;
...